src/tests/data/output/raw_export_result/micro_grid_NL_T1.raw
,100.0,33,0,0,50     / Created with GridCal
(Thu Mar 20 12:06:04 2025)  HORIZON: 20241205 00H DEM: 25029.8MW
HID:4644MW,TERM:10747MW,EOL:6503MW,FV:0MW,OK
     1, 'NL_TR_BUS2  ',  15.7500, 1,      1,      1,      1,  1.01800,   0.0000,  1.05000,  0.95000,  1.10000,  0.90000
     2, 'N1230822413 ',  15.7500, 1,      1,      1,      1,  1.01700,  -1.7161,  1.05000,  0.95000,  1.10000,  0.90000
     3, 'NL_Busbar__4', 220.0000, 1,      1,      1,      1,  1.02330,  -3.4919,  1.05000,  0.95000,  1.10000,  0.90000
     4, 'NL-Busbar_2 ', 220.0000, 1,      1,      1,      1,  1.02330,  -3.4919,  1.05000,  0.95000,  1.10000,  0.90000
     5, 'N1230992195 ', 400.0000, 1,      1,      1,      1,  1.02154,  -6.3618,  1.05000,  0.95000,  1.10000,  0.90000
     6, 'TN_Border_GY11', 400.0000, 1,      0,      0,      1,  1.02720,  -6.5843,  1.05000,  0.95000,  1.10000,  0.90000
     7, 'TN_Border_MA11', 400.0000, 1,      0,      0,      1,  1.03153,  -6.7552,  1.05000,  0.95000,  1.10000,  0.90000
     8, 'TN_Border_AL11', 400.0000, 1,      0,      0,      1,  1.02788,  -6.5960,  1.05000,  0.95000,  1.10000,  0.90000
     9, 'TN_Border_ST23', 220.0000, 1,      0,      0,      1,  1.02498,  -5.5857,  1.05000,  0.95000,  1.10000,  0.90000
    10, 'TN_Border_ST24', 220.0000, 1,      0,      0,      1,  1.02257,  -5.6441,  1.05000,  0.95000,  1.10000,  0.90000
0 / END OF BUS DATA, BEGIN LOAD DATA
     4, '1 ',      1,      0,      0,    388.8,      161,     97.2,      -69, 0.00000E+00, 0.00000E+00,      0, 0.00000E+00, 0.00000E+00
     5, '1 ',      1,      0,      0,       10,       10, 0.00000E+00,       -0, 0.00000E+00, 0.00000E+00,      0, 0.00000E+00, 0.00000E+00
     5, '2 ',      1,      0,      0,       90,      280, 0.00000E+00,       -0, 0.00000E+00, 0.00000E+00,      0, 0.00000E+00, 0.00000E+00
     7, '1 ',      1,      0,      0,   43.806,  -84.896, 0.00000E+00, 0.00000E+00, 0.00000E+00, 0.00000E+00,      0, 0.00000E+00, 0.00000E+00
     9, '1 ',      1,      0,      0,   27.396, -0.42717, 0.00000E+00, 0.00000E+00, 0.00000E+00, 0.00000E+00,      0, 0.00000E+00, 0.00000E+00
    10, '1 ',      1,      0,      0,   26.835,  -1.4925, 0.00000E+00, 0.00000E+00, 0.00000E+00, 0.00000E+00,      0, 0.00000E+00, 0.00000E+00
     6, '1 ',      1,      0,      0,   90.249,  -148.63, 0.00000E+00, 0.00000E+00, 0.00000E+00, 0.00000E+00,      0, 0.00000E+00, 0.00000E+00
     8, '1 ',      1,      0,      0,   46.927,  -79.208, 0.00000E+00, 0.00000E+00, 0.00000E+00, 0.00000E+00,      0, 0.00000E+00, 0.00000E+00
0 / END OF LOAD DATA, BEGIN FIXED SHUNT DATA
0 / END OF FIXED SHUNT DATA, BEGIN GENERATOR DATA
     2, '1 ',      140, 0.00000E+00,      200, 0.00000E+00, 1.01700E+00,      0,      250, 0.00000E+00, 0.00000E+00, 0.00000E+00, 0.00000E+00, 0.00000E+00,      1,      100,      250,      130,      1, 1.00000E+00,      0, 1.00000E+00,      0, 1.00000E+00,      0, 1.00000E+00,      0,  0.87425
     2, '2 ',      150, 0.00000E+00,      200, 0.00000E+00, 1.01700E+00,      0,      250, 0.00000E+00, 0.00000E+00, 0.00000E+00, 0.00000E+00, 0.00000E+00,      1,      100,      250,      130,      1, 1.00000E+00,      0, 1.00000E+00,      0, 1.00000E+00,      0, 1.00000E+00,      0,  0.87425
     1, '1 ',   600.49, 0.00000E+00,      600, 0.00000E+00, 1.01800E+00,      0, 1.10000E+03, 0.00000E+00, 0.00000E+00, 0.00000E+00, 0.00000E+00, 0.00000E+00,      1,      100, 1.00000E+03,      300,      1, 1.00000E+00,      0, 1.00000E+00,      0, 1.00000E+00,      0, 1.00000E+00,      0,  0.84061
0 / END OF GENERATOR DATA, BEGIN BRANCH DATA
     5,      8, '1 ', 0.0006375, 7.50000E-03,  0.22619,   949.86,   949.86, 1.32980E+03, 0.00000E+00, 0.00000E+00, 0.00000E+00, 0.00000E+00,      1,      1,       30,    1, 1.00000E+00,    0, 0.00000E+00,    0, 0.00000E+00,    0, 0.00000E+00
     5,      7, '1 ', 1.45000E-03,  0.01265, 0.040212,    849.4,    849.4, 1.18916E+03, 0.00000E+00, 0.00000E+00, 0.00000E+00, 0.00000E+00,      1,      1,       40,    1, 1.00000E+00,    0, 0.00000E+00,    0, 0.00000E+00,    0, 0.00000E+00
     3,     10, '1 ', 0.010455,  0.14256, 9.79224E-03,   449.64,   449.64,    629.5, 0.00000E+00, 0.00000E+00, 0.00000E+00, 0.00000E+00,      1,      1,       23,    1, 1.00000E+00,    0, 0.00000E+00,    0, 0.00000E+00,    0, 0.00000E+00
     3,      9, '1 ', 4.54545E-03,  0.13636, 0.043487,   549.86,   549.86,    769.8, 0.00000E+00, 0.00000E+00, 0.00000E+00, 0.00000E+00,      1,      1,       22,    1, 1.00000E+00,    0, 0.00000E+00,    0, 0.00000E+00,    0, 0.00000E+00
     5,      6, '1 ', 0.0002625, 3.93750E-03,   0.1038, 1.24985E+03, 1.24985E+03, 1.74979E+03, 0.00000E+00, 0.00000E+00, 0.00000E+00, 0.00000E+00,      1,      1,       35,    1, 1.00000E+00,    0, 0.00000E+00,    0, 0.00000E+00,    0, 0.00000E+00
0 / END OF BRANCH DATA, BEGIN TRANSFORMER DATA
     5,      4,      0, '1 ', 1, 1, 1, 8.7891e-05, -0.00069445, 2, '            ', 1,    1,   1.0000,    0,   1.0000,    0,   1.0000,    0,   1.0000, '            '
8.43750E-04, 1.74796E-02,   320.00
 0.98425,  400.000,    0.000,   320.01,   320.01,   448.01,      0,      0,  1.50000,  0.51000,  1.00000,  1.00000,     41,      0,  0.00000,  0.00000,    0.000
 1.00000,  220.000
     3,      2,      0, '1 ', 1, 1, 1, 5.543e-05, -0.00043297, 2, '            ', 1,    1,   1.0000,    0,   1.0000,    0,   1.0000,    0,   1.0000, '            '
1.42857E-04, 1.11102E-02,  1260.00
 1.00000,  220.000,    0.000,  1259.98,  1259.98,  1763.98,      0,      0,  1.50000,  0.51000,  1.00000,  1.00000,     34,      0,  0.00000,  0.00000,    0.000
 1.00000,   15.750
     4,      1,      0, '1 ', 1, 1, 1, 5.543e-05, -0.00043297, 2, '            ', 1,    1,   1.0000,    0,   1.0000,    0,   1.0000,    0,   1.0000, '            '
1.34921E-04, 1.11103E-02,  1260.00
 1.03226,  220.000,    0.000,  1259.98,  1259.98,  1763.98,      0,      0,  1.50000,  0.51000,  1.00000,  1.00000,     31,      0,  0.00000,  0.00000,    0.000
 1.00000,   15.750
0 / END OF TRANSFORMER DATA, BEGIN AREA INTERCHANGE DATA
     1,      0, 0.00000E+00, 0.00000E+00, 'NL          '
0 / END OF AREA INTERCHANGE DATA, BEGIN TWO-TERMINAL DC LINE DATA
0 / END OF TWO-TERMINAL DC LINE DATA, BEGIN VSC DC LINE DATA
0 / END OF VSC DC LINE DATA, BEGIN IMPEDANCE CORRECTION DATA
0 / END OF IMPEDANCE CORRECTION DATA, BEGIN MULTI-TERMINAL DC LINE DATA
0 / END OF MULTI-TERMINAL DC LINE DATA, BEGIN MULTI-SECTION LINE GROUP DATA
0 / END OF MULTI-SECTION LINE GROUP DATA, BEGIN ZONE DATA
     1, 'TENNET TSO B.V.'
0 / END OF ZONE DATA, BEGIN INTER-AREA TRANSFER DATA
0 / END OF INTER-AREA TRANSFER DATA, BEGIN OWNER DATA
   1, 'default     '
0 / END OF OWNER DATA, BEGIN FACTS DEVICE DATA
0 / END OF FACTS DEVICE DATA, BEGIN SWITCHED SHUNT DATA
     5,      0,      0,      1, 1.00000E+00, 1.00000E+00,      0, 1.00000E+00, '',    1e-20,      1,    50.08,      0, 0.00000E+00,      0, 0.00000E+00,      0, 0.00000E+00,      0, 0.00000E+00,      0, 0.00000E+00,      0, 0.00000E+00,      0, 0.00000E+00
0 / END OF SWITCHED SHUNT DATA, BEGIN GNE DATA
0 / END OF GNE DATA, BEGIN SUBSTATION DATA
0 / END OF SUBSTATION DATA
Q
